powerfulcases/cases/matpower/case3012wp/case3012wp.raw
0, 100, 33, 0, 0, 60  / 28-Jan-2026 21:51:56 - MATPOWER 8.1


     1, 'BUS 1       ',       220, 1,    1,    1, 1,     1.10687,    -0.31071, 1.11, 0.95, 1.11, 0.95
     2, 'BUS 2       ',       220, 1,    1,    1, 1,     1.10786,     1.38118, 1.11, 0.95, 1.11, 0.95
     3, 'BUS 3       ',       220, 1,    1,    1, 1,     1.06622,   -30.75479, 1.11, 0.95, 1.11, 0.95
     4, 'BUS 4       ',       220, 1,    1,    1, 1,     1.06616,   -30.76377, 1.11, 0.95, 1.11, 0.95
     5, 'BUS 5       ',       220, 1,    1,    1, 1,     1.07733,   -32.99749, 1.11, 0.95, 1.11, 0.95
     6, 'BUS 6       ',       220, 1,    1,    1, 1,     1.07571,    -6.07319, 1.11, 0.95, 1.11, 0.95
     7, 'BUS 7       ',       220, 1,    1,    1, 1,     1.07568,    -6.07443, 1.11, 0.95, 1.11, 0.95
     8, 'BUS 8       ',       220, 1,    1,    1, 1,     1.09064,   -18.37688, 1.11, 0.95, 1.11, 0.95
     9, 'BUS 9       ',       220, 1,    1,    1, 1,     1.09088,   -18.36046, 1.11, 0.95, 1.11, 0.95
    10, 'BUS 10      ',       220, 1,    1,    1, 1,        1.11,   -21.78212, 1.11, 0.95, 1.11, 0.95
    11, 'BUS 11      ',       400, 1,    1,    1, 1,     1.02566,   -13.20685, 1.05, 0.95, 1.05, 0.95
    12, 'BUS 12      ',       400, 1,    1,    1, 1,     1.02574,   -13.19799, 1.05, 0.95, 1.05, 0.95
    13, 'BUS 13      ',       400, 1,    1,    1, 1,      1.0119,   -17.61355, 1.05, 0.95, 1.05, 0.95
    14, 'BUS 14      ',       220, 1,    1,    1, 1,     1.04309,   -18.20959, 1.11, 0.95, 1.11, 0.95
    15, 'BUS 15      ',       220, 1,    1,    1, 1,     1.04329,    -18.2057, 1.11, 0.95, 1.11, 0.95
    16, 'BUS 16      ',       220, 1,    1,    1, 1,      1.0433,   -18.19566, 1.11, 0.95, 1.11, 0.95
    17, 'BUS 17      ',       220, 1,    1,    1, 1,     1.03119,   -22.61825, 1.11, 0.95, 1.11, 0.95
    18, 'BUS 18      ',       220, 1,    1,    1, 1,     1.03092,   -22.24172, 1.11, 0.95, 1.11, 0.95
    19, 'BUS 19      ',       400, 1,    1,    1, 1,     1.02695,   -11.56537, 1.05, 0.95, 1.05, 0.95
    20, 'BUS 20      ',       400, 1,    1,    1, 1,       1.027,   -11.55538, 1.05, 0.95, 1.05, 0.95
    21, 'BUS 21      ',       400, 1,    1,    1, 1,       1.022,   -21.30132, 1.05, 0.95, 1.05, 0.95
    22, 'BUS 22      ',       400, 1,    1,    1, 1,      1.0159,   -17.33382, 1.05, 0.95, 1.05, 0.95
    23, 'BUS 23      ',       400, 1,    1,    1, 1,      1.0159,   -17.33382, 1.05, 0.95, 1.05, 0.95
    24, 'BUS 24      ',       220, 2,    1,    1, 1,     1.08673,    -25.1625, 1.11, 0.95, 1.11, 0.95
    25, 'BUS 25      ',       220, 2,    1,    1, 1,     1.08668,   -25.16218, 1.11, 0.95, 1.11, 0.95
    26, 'BUS 26      ',       220, 1,    1,    1, 1,     1.08508,    -5.08891, 1.11, 0.95, 1.11, 0.95
    27, 'BUS 27      ',       220, 1,    1,    1, 1,      1.0852,    -5.10279, 1.11, 0.95, 1.11, 0.95
    28, 'BUS 28      ',       220, 1,    1,    1, 1,     1.04003,   -20.22757, 1.11, 0.95, 1.11, 0.95
    29, 'BUS 29      ',       220, 1,    1,    1, 1,     1.03998,   -20.22535, 1.11, 0.95, 1.11, 0.95
    30, 'BUS 30      ',       220, 1,    1,    1, 1,     1.04254,   -17.70338, 1.11, 0.95, 1.11, 0.95
    31, 'BUS 31      ',       220, 1,    1,    1, 1,     1.04248,   -17.71626, 1.11, 0.95, 1.11, 0.95
    32, 'BUS 32      ',       220, 1,    1,    1, 1,     1.08455,     -2.6769, 1.11, 0.95, 1.11, 0.95
    33, 'BUS 33      ',       220, 1,    1,    1, 1,     1.08445,    -2.70092, 1.11, 0.95, 1.11, 0.95
    34, 'BUS 34      ',       400, 1,    1,    1, 1,     1.01782,   -15.36123, 1.05, 0.95, 1.05, 0.95
    35, 'BUS 35      ',       400, 1,    1,    1, 1,     1.01778,   -15.36625, 1.05, 0.95, 1.05, 0.95
    36, 'BUS 36      ',       400, 1,    1,    1, 1,     1.00715,   -18.54864, 1.05, 0.95, 1.05, 0.95
    37, 'BUS 37      ',       220, 3,    1,    1, 1,        1.11,           0, 1.11, 0.95, 1.11, 0.95
    38, 'BUS 38      ',       220, 2,    1,    1, 1,        1.11,     1.67906, 1.11, 0.95, 1.11, 0.95
    39, 'BUS 39      ',       220, 2,    1,    1, 1,        1.11,      1.6712, 1.11, 0.95, 1.11, 0.95
    40, 'BUS 40      ',       400, 2,    1,    1, 1,     1.04749,     0.16082, 1.05, 0.95, 1.05, 0.95
    41, 'BUS 41      ',       400, 2,    1,    1, 1,     1.04746,      0.1677, 1.05, 0.95, 1.05, 0.95
    42, 'BUS 42      ',       220, 1,    1,    1, 1,       1.032,   -19.50464, 1.11, 0.95, 1.11, 0.95
    43, 'BUS 43      ',       220, 1,    1,    1, 1,      1.0319,   -19.50833, 1.11, 0.95, 1.11, 0.95
    44, 'BUS 44      ',       400, 1,    1,    1, 1,        1.05,    -1.46667, 1.05, 0.95, 1.05, 0.95
    45, 'BUS 45      ',       400, 1,    1,    1, 1,     1.04999,     -1.4702, 1.05, 0.95, 1.05, 0.95
    46, 'BUS 46      ',       220, 1,    1,    1, 1,     1.03961,   -18.55938, 1.11, 0.95, 1.11, 0.95
    47, 'BUS 47      ',       220, 1,    1,    1, 1,      1.0603,    -8.38392, 1.11, 0.95, 1.11, 0.95
    48, 'BUS 48      ',       220, 1,    1,    1, 1,     1.06031,    -8.40113, 1.11, 0.95, 1.11, 0.95
    49, 'BUS 49      ',       220, 1,    1,    2, 1,     1.09293,   -12.14531, 1.11, 0.95, 1.11, 0.95
    50, 'BUS 50      ',       220, 1,    1,    2, 1,     1.09117,   -11.76281, 1.11, 0.95, 1.11, 0.95
    51, 'BUS 51      ',       220, 1,    1,    2, 1,     1.10366,   -10.12826, 1.11, 0.95, 1.11, 0.95
    52, 'BUS 52      ',       220, 1,    1,    2, 1,     1.10363,   -10.13266, 1.11, 0.95, 1.11, 0.95
    53, 'BUS 53      ',       220, 1,    1,    2, 1,     1.07232,   -14.11371, 1.11, 0.95, 1.11, 0.95
    54, 'BUS 54      ',       220, 1,    1,    2, 1,     1.09961,    -8.90014, 1.11, 0.95, 1.11, 0.95
    55, 'BUS 55      ',       220, 1,    1,    2, 1,     1.09968,    -8.89933, 1.11, 0.95, 1.11, 0.95
    56, 'BUS 56      ',       400, 1,    1,    2, 1,     1.03605,    -9.05729, 1.05, 0.95, 1.05, 0.95
    57, 'BUS 57      ',       220, 2,    1,    2, 1,     1.10173,   -10.25582, 1.11, 0.95, 1.11, 0.95
    58, 'BUS 58      ',       220, 2,    1,    2, 1,     1.10171,   -10.25621, 1.11, 0.95, 1.11, 0.95
    59, 'BUS 59      ',       220, 2,    1,    2, 1,     1.10172,   -10.25725, 1.11, 0.95, 1.11, 0.95
    60, 'BUS 60      ',       400, 2,    1,    2, 1,        1.05,    -8.39996, 1.05, 0.95, 1.05, 0.95
    61, 'BUS 61      ',       400, 2,    1,    2, 1,        1.05,    -8.39311, 1.05, 0.95, 1.05, 0.95
    62, 'BUS 62      ',       220, 1,    1,    2, 1,     1.09422,    -9.63373, 1.11, 0.95, 1.11, 0.95
    63, 'BUS 63      ',       400, 1,    1,    2, 1,     1.04488,   -12.96627, 1.05, 0.95, 1.05, 0.95
    64, 'BUS 64      ',       400, 1,    1,    2, 1,     1.04488,   -12.96741, 1.05, 0.95, 1.05, 0.95
    65, 'BUS 65      ',       400, 1,    1,    2, 1,     1.04784,    -9.93617, 1.05, 0.95, 1.05, 0.95
    66, 'BUS 66      ',       220, 1,    1,    2, 1,     1.07841,   -12.39445, 1.11, 0.95, 1.11, 0.95
    67, 'BUS 67      ',       220, 1,    1,    2, 1,     1.07841,    -12.3893, 1.11, 0.95, 1.11, 0.95
    68, 'BUS 68      ',       400, 1,    1,    2, 1,     1.04573,    -9.63176, 1.05, 0.95, 1.05, 0.95
    69, 'BUS 69      ',       400, 1,    1,    2, 1,     1.04572,    -9.63384, 1.05, 0.95, 1.05, 0.95
    70, 'BUS 70      ',       220, 2,    1,    2, 1,     1.10839,    -8.87769, 1.11, 0.95, 1.11, 0.95
    71, 'BUS 71      ',       220, 2,    1,    2, 1,     1.10837,    -8.87934, 1.11, 0.95, 1.11, 0.95
    72, 'BUS 72      ',       400, 2,    1,    2, 1,     1.04326,    -9.26509, 1.05, 0.95, 1.05, 0.95
    73, 'BUS 73      ',       400, 2,    1,    2, 1,     1.04328,     -9.2666, 1.05, 0.95, 1.05, 0.95
    74, 'BUS 74      ',       220, 2,    1,    2, 1,     1.09864,   -11.20347, 1.11, 0.95, 1.11, 0.95
    75, 'BUS 75      ',       220, 1,    1,    2, 1,     1.09863,    -11.2051, 1.11, 0.95, 1.11, 0.95
    76, 'BUS 76      ',       220, 1,    1,    2, 1,     1.09665,    -9.80009, 1.11, 0.95, 1.11, 0.95
    77, 'BUS 77      ',       220, 1,    1,    2, 1,     1.09665,    -9.79646, 1.11, 0.95, 1.11, 0.95
    78, 'BUS 78      ',       220, 1,    1,    2, 1,     1.09751,   -11.17469, 1.11, 0.95, 1.11, 0.95
    79, 'BUS 79      ',       220, 1,    1,    2, 1,     1.09752,   -11.17842, 1.11, 0.95, 1.11, 0.95
    80, 'BUS 80      ',       400, 1,    1,    2, 1,        1.05,   -10.59415, 1.05, 0.95, 1.05, 0.95
    81, 'BUS 81      ',       400, 1,    1,    2, 1,     1.04997,   -10.60572, 1.05, 0.95, 1.05, 0.95
    82, 'BUS 82      ',       220, 1,    1,    2, 1,     1.10002,   -11.23164, 1.11, 0.95, 1.11, 0.95
    83, 'BUS 83      ',       220, 1,    1,    2, 1,     1.10068,   -11.10542, 1.11, 0.95, 1.11, 0.95
    84, 'BUS 84      ',       220, 1,    1,    2, 1,     1.07989,   -11.21263, 1.11, 0.95, 1.11, 0.95
    85, 'BUS 85      ',       220, 1,    1,    3, 1,     1.09346,     -3.5943, 1.11, 0.95, 1.11, 0.95
    86, 'BUS 86      ',       220, 1,    1,    3, 1,     1.09458,    -8.18638, 1.11, 0.95, 1.11, 0.95
    87, 'BUS 87      ',       220, 1,    1,    3, 1,      1.0946,    -8.18664, 1.11, 0.95, 1.11, 0.95
    88, 'BUS 88      ',       220, 1,    1,    3, 1,     1.09961,    -2.00004, 1.11, 0.95, 1.11, 0.95
    89, 'BUS 89      ',       220, 1,    1,    3, 1,     1.09973,    -1.98735, 1.11, 0.95, 1.11, 0.95
    90, 'BUS 90      ',       220, 1,    1,    3, 1,     1.10943,    -1.60433, 1.11, 0.95, 1.11, 0.95
    91, 'BUS 91      ',       220, 1,    1,    3, 1,     1.10945,    -1.60664, 1.11, 0.95, 1.11, 0.95
    92, 'BUS 92      ',       220, 1,    1,    3, 1,     1.07467,    -3.37656, 1.11, 0.95, 1.11, 0.95
    93, 'BUS 93      ',       220, 1,    1,    3, 1,     1.07442,    -3.38318, 1.11, 0.95, 1.11, 0.95
    94, 'BUS 94      ',       220, 2,    1,    3, 1,     1.10879,    -1.16446, 1.11, 0.95, 1.11, 0.95
    95, 'BUS 95      ',       220, 2,    1,    3, 1,        1.11,    -0.70406, 1.11, 0.95, 1.11, 0.95
    96, 'BUS 96      ',       220, 1,    1,    3, 1,     1.09588,    -2.13544, 1.11, 0.95, 1.11, 0.95
    97, 'BUS 97      ',       220, 1,    1,    3, 1,     1.09587,    -2.13643, 1.11, 0.95, 1.11, 0.95
    98, 'BUS 98      ',       400, 2,    1,    3, 1,        1.05,    -3.78388, 1.05, 0.95, 1.05, 0.95
    99, 'BUS 99      ',       400, 1,    1,    3, 1,     1.04991,    -3.81135, 1.05, 0.95, 1.05, 0.95
   100, 'BUS 100     ',       220, 1,    1,    3, 1,     1.06008,     -5.3044, 1.11, 0.95, 1.11, 0.95
   101, 'BUS 101     ',       220, 1,    1,    3, 1,     1.10846,    -1.10453, 1.11, 0.95, 1.11, 0.95
   102, 'BUS 102     ',       220, 1,    1,    3, 1,     1.10846,    -1.10183, 1.11, 0.95, 1.11, 0.95
   103, 'BUS 103     ',       220, 1,    1,    3, 1,     1.09635,    -3.36048, 1.11, 0.95, 1.11, 0.95
   104, 'BUS 104     ',       220, 1,    1,    3, 1,     1.09629,     -3.3649, 1.11, 0.95, 1.11, 0.95
   105, 'BUS 105     ',       220, 1,    1,    3, 1,     1.10423,    -0.96982, 1.11, 0.95, 1.11, 0.95
   106, 'BUS 106     ',       220, 1,    1,    3, 1,     1.10416,    -0.97182, 1.11, 0.95, 1.11, 0.95
   107, 'BUS 107     ',       220, 1,    1,    3, 1,     1.10052,    -2.95149, 1.11, 0.95, 1.11, 0.95
   108, 'BUS 108     ',       220, 1,    1,    3, 1,      1.1005,    -2.95733, 1.11, 0.95, 1.11, 0.95
   109, 'BUS 109     ',       400, 1,    1,    3, 1,     1.04342,    -1.54584, 1.05, 0.95, 1.05, 0.95
   110, 'BUS 110     ',       400, 1,    1,    3, 1,     1.04342,    -1.54731, 1.05, 0.95, 1.05, 0.95
   111, 'BUS 111     ',       220, 1,    1,    3, 1,     1.10685,    -0.81041, 1.11, 0.95, 1.11, 0.95
   112, 'BUS 112     ',       220, 1,    1,    3, 1,     1.10687,    -0.80889, 1.11, 0.95, 1.11, 0.95
   113, 'BUS 113     ',       220, 1,    1,    3, 1,     1.08112,    -2.74238, 1.11, 0.95, 1.11, 0.95
   114, 'BUS 114     ',       220, 1,    1,    3, 1,     1.08102,    -2.75523, 1.11, 0.95, 1.11, 0.95
   115, 'BUS 115     ',       220, 2,    1,    3, 1,     1.10086,    -2.24238, 1.11, 0.95, 1.11, 0.95
   116, 'BUS 116     ',       220, 1,    1,    3, 1,     1.10083,    -2.25484, 1.11, 0.95, 1.11, 0.95
   117, 'BUS 117     ',       220, 1,    1,    3, 1,     1.09464,    -8.16746, 1.11, 0.95, 1.11, 0.95
   118, 'BUS 118     ',       220, 1,    1,    3, 1,     1.09463,    -8.16449, 1.11, 0.95, 1.11, 0.95
   119, 'BUS 119     ',       220, 1,    1,    3, 1,     1.06073,    -3.70462, 1.11, 0.95, 1.11, 0.95
   120, 'BUS 120     ',       220, 1,    1,    3, 1,      1.0607,    -3.70595, 1.11, 0.95, 1.11, 0.95
   121, 'BUS 121     ',       220, 2,    1,    3, 1,     1.10998,    -0.81487, 1.11, 0.95, 1.11, 0.95
   122, 'BUS 122     ',       220, 2,    1,    3, 1,        1.11,    -0.81293, 1.11, 0.95, 1.11, 0.95
   123, 'BUS 123     ',       220, 2,    1,    3, 1,     1.10998,     -0.9014, 1.11, 0.95, 1.11, 0.95
   124, 'BUS 124     ',       220, 2,    1,    3, 1,        1.11,    -0.88955, 1.11, 0.95, 1.11, 0.95
   125, 'BUS 125     ',       220, 1,    1,    3, 1,     1.09615,     -3.6595, 1.11, 0.95, 1.11, 0.95
   126, 'BUS 126     ',       220, 1,    1,    3, 1,     1.09618,    -3.66739, 1.11, 0.95, 1.11, 0.95
   127, 'BUS 127     ',       220, 1,    1,    3, 1,     1.07909,    -3.98005, 1.11, 0.95, 1.11, 0.95
   128, 'BUS 128     ',       220, 1,    1,    3, 1,     1.08915,     -1.6916, 1.11, 0.95, 1.11, 0.95
   129, 'BUS 129     ',       220, 1,    1,    3, 1,     1.08919,     -1.6937, 1.11, 0.95, 1.11, 0.95
   130, 'BUS 130     ',       220, 1,    1,    3, 1,     1.09446,    -2.20106, 1.11, 0.95, 1.11, 0.95
   131, 'BUS 131     ',       220, 1,    1,    3, 1,     1.09456,    -2.19291, 1.11, 0.95, 1.11, 0.95
   132, 'BUS 132     ',       400, 1,    1,    3, 1,     1.04145,    -4.68941, 1.05, 0.95, 1.05, 0.95
   133, 'BUS 133     ',       400, 1,    1,    3, 1,     1.04145,    -4.68941, 1.05, 0.95, 1.05, 0.95
   134, 'BUS 134     ',       220, 2,    1,    3, 1,      1.1076,    -1.75405, 1.11, 0.95, 1.11, 0.95
   135, 'BUS 135     ',       220, 2,    1,    3, 1,     1.10756,    -1.75662, 1.11, 0.95, 1.11, 0.95
   136, 'BUS 136     ',       220, 2,    1,    3, 1,     1.09273,    -3.25359, 1.11, 0.95, 1.11, 0.95
   137, 'BUS 137     ',       220, 1,    1,    3, 1,     1.09274,    -3.26507, 1.11, 0.95, 1.11, 0.95
   138, 'BUS 138     ',       400, 1,    1,    3, 1,     1.04773,   -10.43139, 1.05, 0.95, 1.05, 0.95
   139, 'BUS 139     ',       400, 1,    1,    3, 1,     1.04776,   -10.43347, 1.05, 0.95, 1.05, 0.95
   140, 'BUS 140     ',       400, 1,    1,    3, 1,        1.05,    -5.23789, 1.05, 0.95, 1.05, 0.95
   141, 'BUS 141     ',       400, 1,    1,    3, 1,        1.05,    -5.23626, 1.05, 0.95, 1.05, 0.95
   142, 'BUS 142     ',       220, 1,    1,    3, 1,     1.07651,    -4.23696, 1.11, 0.95, 1.11, 0.95
   143, 'BUS 143     ',       220, 1,    1,    3, 1,     1.07657,     -4.2345, 1.11, 0.95, 1.11, 0.95
   144, 'BUS 144     ',       220, 2,    1,    3, 1,     1.10995,    -0.42094, 1.11, 0.95, 1.11, 0.95
   145, 'BUS 145     ',       220, 2,    1,    3, 1,        1.11,    -0.39755, 1.11, 0.95, 1.11, 0.95
   146, 'BUS 146     ',       400, 2,    1,    3, 1,     1.03968,    -3.73649, 1.05, 0.95, 1.05, 0.95
   147, 'BUS 147     ',       400, 1,    1,    3, 1,     1.03973,    -3.73553, 1.05, 0.95, 1.05, 0.95
   148, 'BUS 148     ',       220, 1,    1,    3, 1,     1.09503,    -3.45038, 1.11, 0.95, 1.11, 0.95
   149, 'BUS 149     ',       220, 1,    1,    3, 1,     1.09511,    -3.44329, 1.11, 0.95, 1.11, 0.95
   150, 'BUS 150     ',       220, 1,    1,    3, 1,     1.10974,    -0.88932, 1.11, 0.95, 1.11, 0.95
   151, 'BUS 151     ',       220, 1,    1,    3, 1,     1.09847,    -3.06801, 1.11, 0.95, 1.11, 0.95
   152, 'BUS 152     ',       220, 2,    1,    3, 1,      1.0747,    -3.37679, 1.11, 0.95, 1.11, 0.95
   153, 'BUS 153     ',       220, 2,    1,    3, 1,     1.07446,    -3.38341, 1.11, 0.95, 1.11, 0.95
   154, 'BUS 154     ',       220, 2,    1,    4, 1,      1.0886,   -12.28014, 1.11, 0.95, 1.11, 0.95
   155, 'BUS 155     ',       220, 2,    1,    4, 1,      1.0886,   -12.29183, 1.11, 0.95, 1.11, 0.95
   156, 'BUS 156     ',       220, 1,    1,    4, 1,     1.06352,   -13.64672, 1.11, 0.95, 1.11, 0.95
   157, 'BUS 157     ',       220, 1,    1,    4, 1,     1.06349,   -13.64822, 1.11, 0.95, 1.11, 0.95
   158, 'BUS 158     ',       220, 1,    1,    4, 1,     1.05491,   -15.40253, 1.11, 0.95, 1.11, 0.95
   159, 'BUS 159     ',       220, 1,    1,    4, 1,      1.0809,    -11.9306, 1.11, 0.95, 1.11, 0.95
   160, 'BUS 160     ',       220, 1,    1,    4, 1,     1.08081,      -11.94, 1.11, 0.95, 1.11, 0.95
   161, 'BUS 161     ',       400, 1,    1,    4, 1,     1.02237,   -11.56354, 1.05, 0.95, 1.05, 0.95
   162, 'BUS 162     ',       400, 1,    1,    4, 1,     1.02234,   -11.56615, 1.05, 0.95, 1.05, 0.95
   163, 'BUS 163     ',       220, 1,    1,    4, 1,     1.02624,   -27.57951, 1.11, 0.95, 1.11, 0.95
   164, 'BUS 164     ',       220, 1,    1,    4, 1,     1.07708,   -34.45732, 1.11, 0.95, 1.11, 0.95
   165, 'BUS 165     ',       220, 1,    1,    4, 1,     1.07708,   -34.45732, 1.11, 0.95, 1.11, 0.95
   166, 'BUS 166     ',       220, 1,    1,    4, 1,     1.07169,   -29.99065, 1.11, 0.95, 1.11, 0.95
   167, 'BUS 167     ',       220, 1,    1,    4, 1,     1.07169,   -29.99065, 1.11, 0.95, 1.11, 0.95
   168, 'BUS 168     ',       220, 1,    1,    4, 1,     1.05429,   -15.63955, 1.11, 0.95, 1.11, 0.95
   169, 'BUS 169     ',       220, 2,    1,    4, 1,     1.08102,   -17.43907, 1.11, 0.95, 1.11, 0.95
   170, 'BUS 170     ',       220, 2,    1,    4, 1,     1.08099,   -17.45362, 1.11, 0.95, 1.11, 0.95
   171, 'BUS 171     ',       220, 1,    1,    4, 1,        1.11,   -14.25484, 1.11, 0.95, 1.11, 0.95
   172, 'BUS 172     ',       220, 2,    1,    4, 1,     1.10415,   -32.35768, 1.11, 0.95, 1.11, 0.95
   173, 'BUS 173     ',       220, 2,    1,    4, 1,      1.1041,   -32.35811, 1.11, 0.95, 1.11, 0.95
   174, 'BUS 174     ',       400, 2,    1,    4, 1,     1.03614,   -29.56303, 1.05, 0.95, 1.05, 0.95
   175, 'BUS 175     ',       400, 2,    1,    4, 1,     1.03615,   -29.55912, 1.05, 0.95, 1.05, 0.95
   176, 'BUS 176     ',       220, 1,    1,    4, 1,      0.9948,   -26.47025, 1.11, 0.95, 1.11, 0.95
   177, 'BUS 177     ',       220, 1,    1,    4, 1,     0.99492,   -26.47877, 1.11, 0.95, 1.11, 0.95
   178, 'BUS 178     ',       220, 1,    1,    4, 1,     1.04834,   -21.80385, 1.11, 0.95, 1.11, 0.95
   179, 'BUS 179     ',       220, 1,    1,    4, 1,     1.04835,   -21.80804, 1.11, 0.95, 1.11, 0.95
   180, 'BUS 180     ',       220, 2,    1,    4, 1,        1.11,    -8.16009, 1.11, 0.95, 1.11, 0.95
   181, 'BUS 181     ',       220, 2,    1,    4, 1,        1.11,    -8.16811, 1.11, 0.95, 1.11, 0.95
   182, 'BUS 182     ',       220, 2,    1,    4, 1,        1.11,    -8.14562, 1.11, 0.95, 1.11, 0.95
   183, 'BUS 183     ',       400, 2,    1,    4, 1,      1.0494,    -7.52334, 1.05, 0.95, 1.05, 0.95
   184, 'BUS 184     ',       400, 1,    1,    4, 1,     1.04937,    -7.52475, 1.05, 0.95, 1.05, 0.95
   185, 'BUS 185     ',       220, 1,    1,    4, 1,     1.08073,   -34.49268, 1.11, 0.95, 1.11, 0.95
   186, 'BUS 186     ',       220, 1,    1,    4, 1,     1.08073,   -34.49268, 1.11, 0.95, 1.11, 0.95
   187, 'BUS 187     ',       400, 1,    1,    4, 1,     1.00811,    -12.6487, 1.05, 0.95, 1.05, 0.95
   188, 'BUS 188     ',       400, 1,    1,    4, 1,     0.97886,   -18.43994, 1.05, 0.95, 1.05, 0.95
   189, 'BUS 189     ',       400, 1,    1,    4, 1,     1.02056,   -10.67424, 1.05, 0.95, 1.05, 0.95
   190, 'BUS 190     ',       400, 1,    1,    4, 1,     1.02058,   -10.66628, 1.05, 0.95, 1.05, 0.95
   191, 'BUS 191     ',       220, 2,    1,    4, 1,     1.08298,   -17.58589, 1.11, 0.95, 1.11, 0.95
   192, 'BUS 192     ',       220, 2,    1,    4, 1,     1.08268,   -17.62769, 1.11, 0.95, 1.11, 0.95
   193, 'BUS 193     ',       400, 2,    1,    4, 1,     1.03244,   -10.99838, 1.05, 0.95, 1.05, 0.95
   194, 'BUS 194     ',       220, 1,    1,    4, 1,     1.01417,   -34.12922, 1.11, 0.95, 1.11, 0.95
   195, 'BUS 195     ',       220, 1,    1,    4, 1,     1.01422,   -34.13421, 1.11, 0.95, 1.11, 0.95
   196, 'BUS 196     ',       220, 1,    1,    4, 1,      1.0765,    -34.5414, 1.11, 0.95, 1.11, 0.95
   197, 'BUS 197     ',       220, 1,    1,    4, 1,     1.07651,   -34.54253, 1.11, 0.95, 1.11, 0.95
   198, 'BUS 198     ',       220, 1,    1,    4, 1,     1.02063,   -28.73479, 1.11, 0.95, 1.11, 0.95
   199, 'BUS 199     ',       220, 1,    1,    4, 1,     1.02061,    -28.7266, 1.11, 0.95, 1.11, 0.95
   200, 'BUS 200     ',       400, 1,    1,    4, 1,     0.98033,   -30.38903, 1.05, 0.95, 1.05, 0.95
...
0 / END OF BUS DATA, BEGIN LOAD DATA
    24,  1, 1,    1,    1,     10.05,      20.1, 0, 0, 0, 0, 1, 1, 0
    25,  1, 1,    1,    1,     10.05,      20.1, 0, 0, 0, 0, 1, 1, 0
    37,  1, 1,    1,    1,     48.68,     86.21, 0, 0, 0, 0, 1, 1, 0
    38,  1, 1,    1,    1,     54.54,     89.93, 0, 0, 0, 0, 1, 1, 0
    39,  1, 1,    1,    1,      20.1,     40.19, 0, 0, 0, 0, 1, 1, 0
    40,  1, 1,    1,    1,     60.29,    120.57, 0, 0, 0, 0, 1, 1, 0
    41,  1, 1,    1,    1,     60.29,    120.57, 0, 0, 0, 0, 1, 1, 0
    54,  1, 1,    1,    2,      3.23,         1, 0, 0, 0, 0, 1, 1, 0
    57,  1, 1,    1,    2,     26.12,     60.29, 0, 0, 0, 0, 1, 1, 0
    58,  1, 1,    1,    2,     54.26,    120.57, 0, 0, 0, 0, 1, 1, 0
    59,  1, 1,    1,    2,     13.06,     30.14, 0, 0, 0, 0, 1, 1, 0
    60,  1, 1,    1,    2,     26.12,     50.24, 0, 0, 0, 0, 1, 1, 0
    61,  1, 1,    1,    2,     26.12,     50.24, 0, 0, 0, 0, 1, 1, 0
    70,  1, 1,    1,    2,     13.06,     30.14, 0, 0, 0, 0, 1, 1, 0
    71,  1, 1,    1,    2,     13.06,     30.14, 0, 0, 0, 0, 1, 1, 0
    72,  1, 1,    1,    2,     13.06,     30.14, 0, 0, 0, 0, 1, 1, 0
    73,  1, 1,    1,    2,     26.12,     60.29, 0, 0, 0, 0, 1, 1, 0
    74,  1, 1,    1,    2,    149.71,     60.29, 0, 0, 0, 0, 1, 1, 0
    75,  1, 1,    1,    2,     29.14,     10.05, 0, 0, 0, 0, 1, 1, 0
    86,  1, 1,    1,    3,      9.35,         0, 0, 0, 0, 0, 1, 1, 0
    87,  1, 1,    1,    3,      8.18,         0, 0, 0, 0, 0, 1, 1, 0
    94,  1, 1,    1,    3,     28.13,     70.33, 0, 0, 0, 0, 1, 1, 0
    95,  1, 1,    1,    3,      42.2,    103.49, 0, 0, 0, 0, 1, 1, 0
    96,  1, 1,    1,    3,      7.72,    -24.99, 0, 0, 0, 0, 1, 1, 0
    98,  1, 1,    1,    3,     32.15,    142.68, 0, 0, 0, 0, 1, 1, 0
   103,  1, 1,    1,    3,     45.11,      7.94, 0, 0, 0, 0, 1, 1, 0
   115,  1, 1,    1,    3,     29.36,     18.51, 0, 0, 0, 0, 1, 1, 0
   122,  1, 1,    1,    3,     10.05,     44.21, 0, 0, 0, 0, 1, 1, 0
   123,  1, 1,    1,    3,      7.03,     18.09, 0, 0, 0, 0, 1, 1, 0
   124,  1, 1,    1,    3,      8.04,      21.1, 0, 0, 0, 0, 1, 1, 0
   126,  1, 1,    1,    3,     71.54,      7.94, 0, 0, 0, 0, 1, 1, 0
   135,  1, 1,    1,    3,      9.04,      20.1, 0, 0, 0, 0, 1, 1, 0
   136,  1, 1,    1,    3,      6.03,     15.07, 0, 0, 0, 0, 1, 1, 0
   144,  1, 1,    1,    3,     18.34,     15.86, 0, 0, 0, 0, 1, 1, 0
   145,  1, 1,    1,    3,     41.01,     43.07, 0, 0, 0, 0, 1, 1, 0
   146,  1, 1,    1,    3,     28.13,     66.31, 0, 0, 0, 0, 1, 1, 0
   154,  1, 1,    1,    4,      7.84,      20.1, 0, 0, 0, 0, 1, 1, 0
   155,  1, 1,    1,    4,      8.04,      20.1, 0, 0, 0, 0, 1, 1, 0
   172,  1, 1,    1,    4,     12.06,     30.14, 0, 0, 0, 0, 1, 1, 0
   173,  1, 1,    1,    4,      9.39,      2.43, 0, 0, 0, 0, 1, 1, 0
   174,  1, 1,    1,    4,     12.06,     30.14, 0, 0, 0, 0, 1, 1, 0
   175,  1, 1,    1,    4,     24.11,     60.29, 0, 0, 0, 0, 1, 1, 0
   180,  1, 1,    1,    4,     26.12,      64.3, 0, 0, 0, 0, 1, 1, 0
   181,  1, 1,    1,    4,     26.12,      64.3, 0, 0, 0, 0, 1, 1, 0
   182,  1, 1,    1,    4,     26.12,     64.51, 0, 0, 0, 0, 1, 1, 0
   183,  1, 1,    1,    4,     26.12,     64.51, 0, 0, 0, 0, 1, 1, 0
   191,  1, 1,    1,    4,     12.06,     30.14, 0, 0, 0, 0, 1, 1, 0
   192,  1, 1,    1,    4,     14.66,     30.65, 0, 0, 0, 0, 1, 1, 0
   193,  1, 1,    1,    4,     38.18,      64.3, 0, 0, 0, 0, 1, 1, 0
   208,  1, 1,    1,    4,      3.14,      1.51, 0, 0, 0, 0, 1, 1, 0
   240,  1, 1,    1,    5,      2.01,     40.19, 0, 0, 0, 0, 1, 1, 0
   241,  1, 1,    1,    5,      5.55,     30.14, 0, 0, 0, 0, 1, 1, 0
   245,  1, 1,    1,    1,      9.94,      2.01, 0, 0, 0, 0, 1, 1, 0
   246,  1, 1,    1,    1,      8.89,         0, 0, 0, 0, 0, 1, 1, 0
   247,  1, 1,    1,    1,      8.89,         0, 0, 0, 0, 0, 1, 1, 0
   248,  1, 1,    1,    1,      6.09,         1, 0, 0, 0, 0, 1, 1, 0
   249,  1, 1,    1,    1,      6.09,      2.01, 0, 0, 0, 0, 1, 1, 0
   250,  1, 1,    1,    1,      2.94,      2.51, 0, 0, 0, 0, 1, 1, 0
   251,  1, 1,    1,    1,      6.29,      5.83, 0, 0, 0, 0, 1, 1, 0
   252,  1, 1,    1,    1,      5.18,      1.31, 0, 0, 0, 0, 1, 1, 0
   253,  1, 1,    1,    1,       6.2,         1, 0, 0, 0, 0, 1, 1, 0
   254,  1, 1,    1,    1,    -11.53,    119.74, 0, 0, 0, 0, 1, 1, 0
   255,  1, 1,    1,    1,     23.02,      2.01, 0, 0, 0, 0, 1, 1, 0
   256,  1, 1,    1,    1,     14.65,      1.51, 0, 0, 0, 0, 1, 1, 0
   257,  1, 1,    1,    1,     16.74,         0, 0, 0, 0, 0, 1, 1, 0
   258,  1, 1,    1,    1,     26.16,      3.01, 0, 0, 0, 0, 1, 1, 0
   259,  1, 1,    1,    1,     11.51,      2.01, 0, 0, 0, 0, 1, 1, 0
   260,  1, 1,    1,    1,      5.23,         1, 0, 0, 0, 0, 1, 1, 0
   261,  1, 1,    1,    1,      5.23,         1, 0, 0, 0, 0, 1, 1, 0
   263,  1, 1,    1,    1,      7.72,      1.51, 0, 0, 0, 0, 1, 1, 0
   264,  1, 1,    1,    1,      5.59,         1, 0, 0, 0, 0, 1, 1, 0
   265,  1, 1,    1,    1,      5.05,       0.5, 0, 0, 0, 0, 1, 1, 0
   266,  1, 1,    1,    1,      5.05,       0.5, 0, 0, 0, 0, 1, 1, 0
   267,  1, 1,    1,    1,      0.06,         0, 0, 0, 0, 0, 1, 1, 0
   268,  1, 1,    1,    1,     10.87,      2.51, 0, 0, 0, 0, 1, 1, 0
   269,  1, 1,    1,    1,     20.71,      5.63, 0, 0, 0, 0, 1, 1, 0
   270,  1, 1,    1,    1,      0.91,       0.4, 0, 0, 0, 0, 1, 1, 0
   271,  1, 1,    1,    1,      1.21,      -0.9, 0, 0, 0, 0, 1, 1, 0
   272,  1, 1,    1,    1,      5.66,       0.3, 0, 0, 0, 0, 1, 1, 0
   273,  1, 1,    1,    1,      5.23,       0.2, 0, 0, 0, 0, 1, 1, 0
   274,  1, 1,    1,    1,     24.07,      2.01, 0, 0, 0, 0, 1, 1, 0
   275,  1, 1,    1,    1,      4.17,      2.11, 0, 0, 0, 0, 1, 1, 0
   276,  1, 1,    1,    1,      8.33,      1.51, 0, 0, 0, 0, 1, 1, 0
   277,  1, 1,    1,    1,      3.15,       0.5, 0, 0, 0, 0, 1, 1, 0
   278,  1, 1,    1,    1,      3.86,      1.61, 0, 0, 0, 0, 1, 1, 0
   279,  1, 1,    1,    1,      3.86,      1.61, 0, 0, 0, 0, 1, 1, 0
   280,  1, 1,    1,    1,     24.36,      6.53, 0, 0, 0, 0, 1, 1, 0
   281,  1, 1,    1,    1,     10.36,      2.21, 0, 0, 0, 0, 1, 1, 0
   282,  1, 1,    1,    1,      6.09,       0.5, 0, 0, 0, 0, 1, 1, 0
   283,  1, 1,    1,    1,      3.25,       0.2, 0, 0, 0, 0, 1, 1, 0
   284,  1, 1,    1,    1,     13.51,      7.03, 0, 0, 0, 0, 1, 1, 0
   285,  1, 1,    1,    1,     20.72,     11.55, 0, 0, 0, 0, 1, 1, 0
   286,  1, 1,    1,    1,     10.31,       0.4, 0, 0, 0, 0, 1, 1, 0
   287,  1, 1,    1,    1,      12.6,      4.52, 0, 0, 0, 0, 1, 1, 0
   288,  1, 1,    1,    1,       9.6,       0.8, 0, 0, 0, 0, 1, 1, 0
   290,  1, 1,    1,    1,      6.28,       0.3, 0, 0, 0, 0, 1, 1, 0
   291,  1, 1,    1,    1,      5.23,         0, 0, 0, 0, 0, 1, 1, 0
   292,  1, 1,    1,    1,      4.19,         0, 0, 0, 0, 0, 1, 1, 0
   293,  1, 1,    1,    1,      1.05,         0, 0, 0, 0, 0, 1, 1, 0
   295,  1, 1,    1,    1,      0.23,       0.4, 0, 0, 0, 0, 1, 1, 0
   297,  1, 1,    1,    1,      9.42,      2.01, 0, 0, 0, 0, 1, 1, 0
   298,  1, 1,    1,    1,       0.3,       0.1, 0, 0, 0, 0, 1, 1, 0
   299,  1, 1,    1,    1,       0.3,       0.1, 0, 0, 0, 0, 1, 1, 0
   300,  1, 1,    1,    1,     13.51,      7.64, 0, 0, 0, 0, 1, 1, 0
   301,  1, 1,    1,    1,      0.51,       0.2, 0, 0, 0, 0, 1, 1, 0
   302,  1, 1,    1,    1,      7.78,       0.1, 0, 0, 0, 0, 1, 1, 0
   303,  1, 1,    1,    1,      8.99,       0.1, 0, 0, 0, 0, 1, 1, 0
   304,  1, 1,    1,    1,      6.71,      2.21, 0, 0, 0, 0, 1, 1, 0
   305,  1, 1,    1,    1,       6.7,       0.6, 0, 0, 0, 0, 1, 1, 0
   306,  1, 1,    1,    1,      3.66,       0.3, 0, 0, 0, 0, 1, 1, 0
   307,  1, 1,    1,    1,      4.16,         1, 0, 0, 0, 0, 1, 1, 0
   310,  1, 1,    1,    1,     33.84,     48.83, 0, 0, 0, 0, 1, 1, 0
   311,  1, 1,    1,    1,      6.28,       0.5, 0, 0, 0, 0, 1, 1, 0
   312,  1, 1,    1,    1,      6.28,       0.5, 0, 0, 0, 0, 1, 1, 0
   313,  1, 1,    1,    1,      4.71,       0.5, 0, 0, 0, 0, 1, 1, 0
   314,  1, 1,    1,    1,      2.62,       0.5, 0, 0, 0, 0, 1, 1, 0
   317,  1, 1,    1,    1,     17.79,      2.51, 0, 0, 0, 0, 1, 1, 0
   318,  1, 1,    1,    1,      3.66,       0.5, 0, 0, 0, 0, 1, 1, 0
   319,  1, 1,    1,    1,      6.37,       0.5, 0, 0, 0, 0, 1, 1, 0
   320,  1, 1,    1,    1,     24.36,      6.53, 0, 0, 0, 0, 1, 1, 0
   321,  1, 1,    1,    1,     26.39,      6.23, 0, 0, 0, 0, 1, 1, 0
   322,  1, 1,    1,    1,     17.27,         1, 0, 0, 0, 0, 1, 1, 0
   323,  1, 1,    1,    1,     43.95,      2.51, 0, 0, 0, 0, 1, 1, 0
   324,  1, 1,    1,    1,      5.76,       0.4, 0, 0, 0, 0, 1, 1, 0
   325,  1, 1,    1,    1,      4.16,         1, 0, 0, 0, 0, 1, 1, 0
   326,  1, 1,    1,    1,      4.88,      1.21, 0, 0, 0, 0, 1, 1, 0
   327,  1, 1,    1,    1,     13.11,      4.22, 0, 0, 0, 0, 1, 1, 0
   328,  1, 1,    1,    1,      8.37,         1, 0, 0, 0, 0, 1, 1, 0
   329,  1, 1,    1,    1,     10.15,         1, 0, 0, 0, 0, 1, 1, 0
   330,  1, 1,    1,    1,     12.18,      2.01, 0, 0, 0, 0, 1, 1, 0
   331,  1, 1,    1,    1,      3.84,         1, 0, 0, 0, 0, 1, 1, 0
   332,  1, 1,    1,    1,     31.28,      22.1, 0, 0, 0, 0, 1, 1, 0
   333,  1, 1,    1,    1,     22.75,     13.06, 0, 0, 0, 0, 1, 1, 0
   334,  1, 1,    1,    1,     38.41,     12.06, 0, 0, 0, 0, 1, 1, 0
   335,  1, 1,    1,    1,      5.08,      2.51, 0, 0, 0, 0, 1, 1, 0
   336,  1, 1,    1,    1,     13.04,       0.7, 0, 0, 0, 0, 1, 1, 0
   337,  1, 1,    1,    1,      2.93,       0.4, 0, 0, 0, 0, 1, 1, 0
   338,  1, 1,    1,    1,      7.78,         1, 0, 0, 0, 0, 1, 1, 0
   339,  1, 1,    1,    1,     16.74,      1.51, 0, 0, 0, 0, 1, 1, 0
   340,  1, 1,    1,    1,      7.32,       0.4, 0, 0, 0, 0, 1, 1, 0
   341,  1, 1,    1,    1,      3.14,       0.1, 0, 0, 0, 0, 1, 1, 0
   342,  1, 1,    1,    1,      9.08,      2.11, 0, 0, 0, 0, 1, 1, 0
   343,  1, 1,    1,    1,      9.08,      2.11, 0, 0, 0, 0, 1, 1, 0
   344,  1, 1,    1,    1,       0.3,         0, 0, 0, 0, 0, 1, 1, 0
   345,  1, 1,    1,    1,      0.81,       0.2, 0, 0, 0, 0, 1, 1, 0
   347,  1, 1,    1,    1,     11.69,      5.63, 0, 0, 0, 0, 1, 1, 0
   348,  1, 1,    1,    1,      7.82,      3.72, 0, 0, 0, 0, 1, 1, 0
   349,  1, 1,    1,    1,      4.88,       0.3, 0, 0, 0, 0, 1, 1, 0
   350,  1, 1,    1,    1,      3.86,       0.6, 0, 0, 0, 0, 1, 1, 0
   351,  1, 1,    1,    1,      3.66,       0.5, 0, 0, 0, 0, 1, 1, 0
   352,  1, 1,    1,    1,      9.42,       0.5, 0, 0, 0, 0, 1, 1, 0
   353,  1, 1,    1,    1,     11.17,      2.01, 0, 0, 0, 0, 1, 1, 0
   354,  1, 1,    1,    1,      13.2,      2.01, 0, 0, 0, 0, 1, 1, 0
   355,  1, 1,    1,    1,     23.87,     14.07, 0, 0, 0, 0, 1, 1, 0
   356,  1, 1,    1,    1,     10.36,      5.02, 0, 0, 0, 0, 1, 1, 0
   357,  1, 1,    1,    1,      2.02,       0.4, 0, 0, 0, 0, 1, 1, 0
   359,  1, 1,    1,    1,     13.82,      4.92, 0, 0, 0, 0, 1, 1, 0
   360,  1, 1,    1,    1,      3.05,         1, 0, 0, 0, 0, 1, 1, 0
   361,  1, 1,    1,    1,     14.02,      1.81, 0, 0, 0, 0, 1, 1, 0
   363,  1, 1,    1,    1,     11.51,       0.2, 0, 0, 0, 0, 1, 1, 0
   364,  1, 1,    1,    1,      4.71,         0, 0, 0, 0, 0, 1, 1, 0
   365,  1, 1,    1,    1,      4.97,      1.31, 0, 0, 0, 0, 1, 1, 0
   366,  1, 1,    1,    1,      5.56,       0.2, 0, 0, 0, 0, 1, 1, 0
   367,  1, 1,    1,    1,     24.36,      7.03, 0, 0, 0, 0, 1, 1, 0
   368,  1, 1,    1,    1,     15.23,      1.61, 0, 0, 0, 0, 1, 1, 0
   369,  1, 1,    1,    1,     11.89,      3.82, 0, 0, 0, 0, 1, 1, 0
   370,  1, 1,    1,    1,       6.5,      1.21, 0, 0, 0, 0, 1, 1, 0
   371,  1, 1,    1,    1,      8.19,       0.1, 0, 0, 0, 0, 1, 1, 0
   372,  1, 1,    1,    1,     16.27,       0.5, 0, 0, 0, 0, 1, 1, 0
   373,  1, 1,    1,    1,      5.69,       0.5, 0, 0, 0, 0, 1, 1, 0
   374,  1, 1,    1,    1,      9.75,      3.52, 0, 0, 0, 0, 1, 1, 0
   375,  1, 1,    1,    1,     18.09,      6.53, 0, 0, 0, 0, 1, 1, 0
   376,  1, 1,    1,    1,     16.74,         0, 0, 0, 0, 0, 1, 1, 0
   377,  1, 1,    1,    1,      5.69,       0.5, 0, 0, 0, 0, 1, 1, 0
   379,  1, 1,    1,    1,     19.02,      6.91, 0, 0, 0, 0, 1, 1, 0
   380,  1, 1,    1,    1,     18.09,      5.93, 0, 0, 0, 0, 1, 1, 0
   381,  1, 1,    1,    1,     23.78,      7.74, 0, 0, 0, 0, 1, 1, 0
   382,  1, 1,    1,    1,     25.81,      8.44, 0, 0, 0, 0, 1, 1, 0
   383,  1, 1,    1,    1,     49.45,     18.99, 0, 0, 0, 0, 1, 1, 0
   384,  1, 1,    1,    1,     30.41,     12.76, 0, 0, 0, 0, 1, 1, 0
   385,  1, 1,    1,    1,     30.41,     12.76, 0, 0, 0, 0, 1, 1, 0
   387,  1, 1,    1,    1,      32.5,     14.27, 0, 0, 0, 0, 1, 1, 0
   388,  1, 1,    1,    1,     13.89,      6.13, 0, 0, 0, 0, 1, 1, 0
   389,  1, 1,    1,    1,      6.57,         1, 0, 0, 0, 0, 1, 1, 0
   390,  1, 1,    1,    1,      8.49,       0.9, 0, 0, 0, 0, 1, 1, 0
   391,  1, 1,    1,    1,      2.09,         0, 0, 0, 0, 0, 1, 1, 0
   392,  1, 1,    1,    1,      4.67,         0, 0, 0, 0, 0, 1, 1, 0
   393,  1, 1,    1,    1,     12.59,      2.41, 0, 0, 0, 0, 1, 1, 0
   394,  1, 1,    1,    1,     15.53,      4.02, 0, 0, 0, 0, 1, 1, 0
   396,  1, 1,    1,    1,      9.14,      2.41, 0, 0, 0, 0, 1, 1, 0
   397,  1, 1,    1,    1,      7.51,      1.91, 0, 0, 0, 0, 1, 1, 0
   398,  1, 1,    1,    1,     14.23,      4.62, 0, 0, 0, 0, 1, 1, 0
   399,  1, 1,    1,    1,     21.13,      6.83, 0, 0, 0, 0, 1, 1, 0
   400,  1, 1,    1,    1,     17.79,         1, 0, 0, 0, 0, 1, 1, 0
   401,  1, 1,    1,    1,     26.01,      9.34, 0, 0, 0, 0, 1, 1, 0
   402,  1, 1,    1,    1,     17.38,      6.23, 0, 0, 0, 0, 1, 1, 0
   403,  1, 1,    1,    1,      7.42,      2.71, 0, 0, 0, 0, 1, 1, 0
   404,  1, 1,    1,    1,     10.46,         0, 0, 0, 0, 0, 1, 1, 0
   405,  1, 1,    1,    1,      5.23,         0, 0, 0, 0, 0, 1, 1, 0
   406,  1, 1,    1,    1,     10.66,         1, 0, 0, 0, 0, 1, 1, 0
...
0 / END OF LOAD DATA, BEGIN FIXED SHUNT DATA
   234, 1, 1,       0,      70
   315, 1, 1,       0,      45
   427, 1, 1,       0,      45
   442, 1, 1,       0,      15
   443, 1, 1,       0,      15
  2748, 1, 1,       0,    48.6
  2772, 1, 1,       0,      60
  2781, 1, 1,       0,      45
  2856, 1, 1,       0,      60
0 / END OF FIXED SHUNT DATA, BEGIN GENERATOR DATA
    24,  1,       110,     85.19,       140,       -49,  1.08673, 0,   235.3, 0, 1, 0, 0, 1, 1, 100,       221,       110, 1, 1, 0, 1, 0, 1, 0, 1, 0, 1
    25,  1,       135,       -22,       124,       -22,  1.08668, 0,   235.3, 0, 1, 0, 0, 1, 1, 100,       200,       135, 1, 1, 0, 1, 0, 1, 0, 1, 0, 1
    37,  1,       370,     74.67,       190,       -19,     1.11, 0,     426, 0, 1, 0, 0, 1, 1, 100,       370,       240, 1, 1, 0, 1, 0, 1, 0, 1, 0, 1
    37,  2,       370,     74.67,       190,       -19,     1.11, 0,     426, 0, 1, 0, 0, 1, 1, 100,       370,       240, 1, 1, 0, 1, 0, 1, 0, 1, 0, 1
    38,  1,       370,     16.41,       190,       -19,     1.11, 0,     426, 0, 1, 0, 0, 1, 1, 100,       370,       240, 1, 1, 0, 1, 0, 1, 0, 1, 0, 1
    38,  2,       370,     16.41,       190,       -19,     1.11, 0,     426, 0, 1, 0, 0, 1, 1, 100,       370,       240, 1, 1, 0, 1, 0, 1, 0, 1, 0, 1
    39,  1,       370,        97,       190,       -19,     1.11, 0,     426, 0, 1, 0, 0, 1, 1, 100,       370,       240, 1, 1, 0, 1, 0, 1, 0, 1, 0, 1
    40,  1,       370,     69.26,       190,       -19,  1.04749, 0,     426, 0, 1, 0, 0, 1, 1, 100,       370,       240, 1, 1, 0, 1, 0, 1, 0, 1, 0, 1
    40,  2,       370,     69.26,       190,       -19,  1.04749, 0,     426, 0, 1, 0, 0, 1, 1, 100,       370,       240, 1, 1, 0, 1, 0, 1, 0, 1, 0, 1
    40,  3,       370,     69.26,       190,       -19,  1.04749, 0,     426, 0, 1, 0, 0, 1, 1, 100,       370,       240, 1, 1, 0, 1, 0, 1, 0, 1, 0, 1
    41,  1,       370,    -18.99,       190,       -19,  1.04746, 0,     426, 0, 1, 0, 0, 1, 1, 100,       370,       240, 1, 1, 0, 1, 0, 1, 0, 1, 0, 1
    41,  2,       370,    -18.99,       190,       -19,  1.04746, 0,     426, 0, 1, 0, 0, 1, 1, 100,       370,       240, 1, 1, 0, 1, 0, 1, 0, 1, 0, 1
    41,  3,       370,    -18.99,       190,       -19,  1.04746, 0,     426, 0, 1, 0, 0, 1, 1, 100,       370,       240, 1, 1, 0, 1, 0, 1, 0, 1, 0, 1
    57,  1,    111.38,     41.84,       152,       -33,  1.10173, 0,     235, 0, 1, 0, 0, 1, 1, 100,       215,       110, 1, 1, 0, 1, 0, 1, 0, 1, 0, 1
    57,  2,    126.35,     41.84,       152,       -33,  1.10173, 0,     235, 0, 1, 0, 0, 1, 1, 100,       220,       125, 1, 1, 0, 1, 0, 1, 0, 1, 0, 1
    58,  1,    164.41,      85.9,       149,       -33,  1.10171, 0,     235, 0, 1, 0, 0, 1, 1, 100,       225,       125, 1, 1, 0, 1, 0, 1, 0, 1, 0, 1
    58,  2,         0,         0,       149,       -33,        1, 0,     235, 0, 1, 0, 0, 1, 0, 100,       225,       120, 1, 1, 0, 1, 0, 1, 0, 1, 0, 1
    58,  3,    153.88,      85.9,       149,       -33,  1.10171, 0,     235, 0, 1, 0, 0, 1, 1, 100,       225,       110, 1, 1, 0, 1, 0, 1, 0, 1, 0, 1
    59,  1,       110,     29.72,       149,       -33,  1.10172, 0,     235, 0, 1, 0, 0, 1, 1, 100,       225,       110, 1, 1, 0, 1, 0, 1, 0, 1, 0, 1
    60,  1,       535,    177.45,       363,       -47,     1.05, 0,     588, 0, 1, 0, 0, 1, 1, 100,       535,       255, 1, 1, 0, 1, 0, 1, 0, 1, 0, 1
    61,  1,       560,     36.63,       348,      -100,     1.05, 0,     588, 0, 1, 0, 0, 1, 1, 100,       560,       250, 1, 1, 0, 1, 0, 1, 0, 1, 0, 1
    70,  1,       129,        -6,       105,       -11,  1.10839, 0,     235, 0, 1, 0, 0, 1, 1, 100,       225,       129, 1, 1, 0, 1, 0, 1, 0, 1, 0, 1
    71,  1,       129,     55.33,       105,       -11,  1.10837, 0,     235, 0, 1, 0, 0, 1, 1, 100,       225,       129, 1, 1, 0, 1, 0, 1, 0, 1, 0, 1
    71,  2,         0,         0,        99,       -10,        1, 0,     235, 0, 1, 0, 0, 1, 0, 100,       225,       129, 1, 1, 0, 1, 0, 1, 0, 1, 0, 1
    72,  1,         0,         0,       105,       -11,        1, 0,     235, 0, 1, 0, 0, 1, 0, 100,       225,       129, 1, 1, 0, 1, 0, 1, 0, 1, 0, 1
    72,  2,       129,       -11,       105,       -11,  1.04326, 0,     235, 0, 1, 0, 0, 1, 1, 100,       225,       129, 1, 1, 0, 1, 0, 1, 0, 1, 0, 1
    73,  1,       129,       -10,        99,       -10,  1.04328, 0,     235, 0, 1, 0, 0, 1, 1, 100,       225,       129, 1, 1, 0, 1, 0, 1, 0, 1, 0, 1
    73,  2,       129,       -11,       105,       -11,  1.04328, 0,     235, 0, 1, 0, 0, 1, 1, 100,       225,       129, 1, 1, 0, 1, 0, 1, 0, 1, 0, 1
    74,  1,       112,        60,        60,         0,  1.09864, 0,     120, 0, 1, 0, 0, 1, 1, 100,       112,         0, 1, 1, 0, 1, 0, 1, 0, 1, 0, 1
    94,  1,       220,     95.65,       131,        -6,  1.10879, 0,   270.6, 0, 1, 0, 0, 1, 1, 100,       220,       125, 1, 1, 0, 1, 0, 1, 0, 1, 0, 1
    94,  2,       225,     95.65,       131,        -6,  1.10879, 0,   270.6, 0, 1, 0, 0, 1, 1, 100,       225,       140, 1, 1, 0, 1, 0, 1, 0, 1, 0, 1
    95,  1,       225,     72.13,       131,        -6,     1.11, 0,   270.6, 0, 1, 0, 0, 1, 1, 100,       225,       130, 1, 1, 0, 1, 0, 1, 0, 1, 0, 1
    95,  2,       225,     72.13,       131,        -6,     1.11, 0,   270.6, 0, 1, 0, 0, 1, 1, 100,       225,       125, 1, 1, 0, 1, 0, 1, 0, 1, 0, 1
    95,  3,       225,     72.13,       131,        -6,     1.11, 0,   270.6, 0, 1, 0, 0, 1, 1, 100,       225,       130, 1, 1, 0, 1, 0, 1, 0, 1, 0, 1
    98,  1,       383,     36.08,       213,       -31,     1.05, 0,     426, 0, 1, 0, 0, 1, 1, 100,       383,       220, 1, 1, 0, 1, 0, 1, 0, 1, 0, 1
    98,  2,       380,     21.68,       119,       -31,     1.05, 0,   435.3, 0, 1, 0, 0, 1, 1, 100,       380,       220, 1, 1, 0, 1, 0, 1, 0, 1, 0, 1
   115,  1,        12,         0,         0,         0,  1.10086, 0,      12, 0, 1, 0, 0, 1, 1, 100,        12,         0, 1, 1, 0, 1, 0, 1, 0, 1, 0, 1
   115,  2,         6,         0,         0,         0,  1.10086, 0,       6, 0, 1, 0, 0, 1, 1, 100,         6,         0, 1, 1, 0, 1, 0, 1, 0, 1, 0, 1
   121,  1,         0,         0,       120,       -10,        1, 0,   270.6, 0, 1, 0, 0, 1, 0, 100,       225,       120, 1, 1, 0, 1, 0, 1, 0, 1, 0, 1
   122,  1,       225,     61.33,       120,       -10,     1.11, 0,   270.6, 0, 1, 0, 0, 1, 1, 100,       225,       120, 1, 1, 0, 1, 0, 1, 0, 1, 0, 1
   123,  1,       120,      66.3,        73,        -1,  1.10998, 0,     150, 0, 1, 0, 0, 1, 1, 100,       120,        70, 1, 1, 0, 1, 0, 1, 0, 1, 0, 1
   124,  1,       120,     16.34,        73,        -1,     1.11, 0,     150, 0, 1, 0, 0, 1, 1, 100,       120,        70, 1, 1, 0, 1, 0, 1, 0, 1, 0, 1
   134,  1,         0,         0,        80,         0,        1, 0,     150, 0, 1, 0, 0, 1, 0, 100,       120,        70, 1, 1, 0, 1, 0, 1, 0, 1, 0, 1
   135,  1,       120,        80,        80,         0,  1.10756, 0,     150, 0, 1, 0, 0, 1, 1, 100,       120,        70, 1, 1, 0, 1, 0, 1, 0, 1, 0, 1
   136,  1,        80,        31,        31,         0,  1.09273, 0,   117.5, 0, 1, 0, 0, 1, 1, 100,       110,        80, 1, 1, 0, 1, 0, 1, 0, 1, 0, 1
   144,  1,       215,     44.29,       135,       -35,  1.10995, 0,   270.6, 0, 1, 0, 0, 1, 1, 100,       215,       135, 1, 1, 0, 1, 0, 1, 0, 1, 0, 1
   145,  1,       215,     41.96,       135,       -35,     1.11, 0,   270.6, 0, 1, 0, 0, 1, 1, 100,       215,       135, 1, 1, 0, 1, 0, 1, 0, 1, 0, 1
   145,  2,       225,     43.99,       140,       -35,     1.11, 0,   270.6, 0, 1, 0, 0, 1, 1, 100,       225,       135, 1, 1, 0, 1, 0, 1, 0, 1, 0, 1
   146,  1,       225,       -36,       140,       -36,  1.03968, 0,   270.6, 0, 1, 0, 0, 1, 1, 100,       225,       135, 1, 1, 0, 1, 0, 1, 0, 1, 0, 1
   146,  2,       220,       -36,       137,       -36,  1.03968, 0,   270.6, 0, 1, 0, 0, 1, 1, 100,       220,       135, 1, 1, 0, 1, 0, 1, 0, 1, 0, 1
   152,  1,         0,         0,        72,       -29,        1, 0,     150, 0, 1, 0, 0, 1, 0, 100,       135,      -135, 1, 1, 0, 1, 0, 1, 0, 1, 0, 1
   152,  2,         0,         0,        72,       -29,        1, 0,     150, 0, 1, 0, 0, 1, 0, 100,       135,      -135, 1, 1, 0, 1, 0, 1, 0, 1, 0, 1
   153,  1,         0,         0,        72,       -29,        1, 0,     150, 0, 1, 0, 0, 1, 0, 100,       135,      -135, 1, 1, 0, 1, 0, 1, 0, 1, 0, 1
   153,  2,         0,         0,        72,       -29,        1, 0,     150, 0, 1, 0, 0, 1, 0, 100,       135,      -135, 1, 1, 0, 1, 0, 1, 0, 1, 0, 1
   154,  1,       120,        85,        85,       -15,   1.0886, 0,     150, 0, 1, 0, 0, 1, 1, 100,       120,        94, 1, 1, 0, 1, 0, 1, 0, 1, 0, 1
   155,  1,       120,        85,        85,       -15,   1.0886, 0,     150, 0, 1, 0, 0, 1, 1, 100,       120,        94, 1, 1, 0, 1, 0, 1, 0, 1, 0, 1
   155,  2,         0,         0,        85,       -15,        1, 0,     150, 0, 1, 0, 0, 1, 0, 100,       120,        94, 1, 1, 0, 1, 0, 1, 0, 1, 0, 1
   169,  1,         0,         0,        25,         0,        1, 0,    51.4, 0, 1, 0, 0, 1, 0, 100,        50,        40, 1, 1, 0, 1, 0, 1, 0, 1, 0, 1
   170,  1,         0,         0,        90,       -15,        1, 0,     150, 0, 1, 0, 0, 1, 0, 100,       120,        80, 1, 1, 0, 1, 0, 1, 0, 1, 0, 1
   170,  2,         0,         0,        25,         0,        1, 0,    51.4, 0, 1, 0, 0, 1, 0, 100,        50,        45, 1, 1, 0, 1, 0, 1, 0, 1, 0, 1
   172,  1,       100,       119,       119,       -31,  1.10415, 0,   252.4, 0, 1, 0, 0, 1, 1, 100,       232,       100, 1, 1, 0, 1, 0, 1, 0, 1, 0, 1
   172,  2,         0,         0,       111,       -21,        1, 0,   237.5, 0, 1, 0, 0, 1, 0, 100,       205,       135, 1, 1, 0, 1, 0, 1, 0, 1, 0, 1
   173,  1,         0,         0,       111,       -21,        1, 0,   237.5, 0, 1, 0, 0, 1, 0, 100,       205,       135, 1, 1, 0, 1, 0, 1, 0, 1, 0, 1
   173,  2,         0,         0,       102,       -15,        1, 0,   252.4, 0, 1, 0, 0, 1, 0, 100,       222,        90, 1, 1, 0, 1, 0, 1, 0, 1, 0, 1
   174,  1,        90,       -15,       102,       -15,  1.03614, 0,   252.4, 0, 1, 0, 0, 1, 1, 100,       222,        90, 1, 1, 0, 1, 0, 1, 0, 1, 0, 1
   175,  1,        90,      62.7,       102,       -15,  1.03615, 0,   252.4, 0, 1, 0, 0, 1, 1, 100,       222,        90, 1, 1, 0, 1, 0, 1, 0, 1, 0, 1
   175,  2,       100,     56.73,        93,       -10,  1.03615, 0,   252.4, 0, 1, 0, 0, 1, 1, 100,       232,       100, 1, 1, 0, 1, 0, 1, 0, 1, 0, 1
   180,  1,       261,        99,       127,       -35,     1.11, 0,   287.3, 0, 1, 0, 0, 1, 1, 100,       261,       104, 1, 1, 0, 1, 0, 1, 0, 1, 0, 1
   180,  2,       261,        99,       127,       -35,     1.11, 0,   287.3, 0, 1, 0, 0, 1, 1, 100,       261,       104, 1, 1, 0, 1, 0, 1, 0, 1, 0, 1
   181,  1,       206,       103,       103,       -17,     1.11, 0,   238.4, 0, 1, 0, 0, 1, 1, 100,       206,       120, 1, 1, 0, 1, 0, 1, 0, 1, 0, 1
   181,  2,       261,       127,       127,       -35,     1.11, 0,   287.3, 0, 1, 0, 0, 1, 1, 100,       261,       104, 1, 1, 0, 1, 0, 1, 0, 1, 0, 1
   182,  1,       235,     10.81,       145,       -38,     1.11, 0,   263.9, 0, 1, 0, 0, 1, 1, 100,       235,        94, 1, 1, 0, 1, 0, 1, 0, 1, 0, 1
   182,  2,       235,     10.81,       145,       -38,     1.11, 0,   263.9, 0, 1, 0, 0, 1, 1, 100,       235,        94, 1, 1, 0, 1, 0, 1, 0, 1, 0, 1
   183,  1,       206,       103,       103,       -17,   1.0494, 0,   238.4, 0, 1, 0, 0, 1, 1, 100,       206,       120, 1, 1, 0, 1, 0, 1, 0, 1, 0, 1
   183,  2,       206,       103,       103,       -17,   1.0494, 0,   238.4, 0, 1, 0, 0, 1, 1, 100,       206,       120, 1, 1, 0, 1, 0, 1, 0, 1, 0, 1
   191,  1,       200,       104,       104,       -23,  1.08298, 0,   233.2, 0, 1, 0, 0, 1, 1, 100,       200,       150, 1, 1, 0, 1, 0, 1, 0, 1, 0, 1
   192,  1,       200,       104,       104,       -23,  1.08268, 0,   233.2, 0, 1, 0, 0, 1, 1, 100,       200,       150, 1, 1, 0, 1, 0, 1, 0, 1, 0, 1
   192,  2,         0,         0,       104,       -23,        1, 0,   233.2, 0, 1, 0, 0, 1, 0, 100,       200,       145, 1, 1, 0, 1, 0, 1, 0, 1, 0, 1
   192,  3,         0,         0,       104,       -23,        1, 0,   233.2, 0, 1, 0, 0, 1, 0, 100,       200,       145, 1, 1, 0, 1, 0, 1, 0, 1, 0, 1
   193,  1,       464,       294,       294,      -259,  1.03244, 0,     464, 0, 1, 0, 0, 1, 1, 100,       464,       208, 1, 1, 0, 1, 0, 1, 0, 1, 0, 1
   208,  1,       188,       100,       100,         0,  1.06751, 0,   218.3, 0, 1, 0, 0, 1, 1, 100,       188,        76, 1, 1, 0, 1, 0, 1, 0, 1, 0, 1
   240,  1,       179,       -62,       105,       -62,  1.02222, 0,     209, 0, 1, 0, 0, 1, 1, 100,       179,      -200, 1, 1, 0, 1, 0, 1, 0, 1, 0, 1
   240,  2,       179,       -62,       105,       -62,  1.02222, 0,     209, 0, 1, 0, 0, 1, 1, 100,       179,      -200, 1, 1, 0, 1, 0, 1, 0, 1, 0, 1
   240,  3,         0,         0,       160,      -100,        1, 0,     209, 0, 1, 0, 0, 1, 0, 100,       179,      -200, 1, 1, 0, 1, 0, 1, 0, 1, 0, 1
   241,  1,       179,    -19.63,       160,      -100,  1.02222, 0,     209, 0, 1, 0, 0, 1, 1, 100,       179,      -200, 1, 1, 0, 1, 0, 1, 0, 1, 0, 1
   244,  1,       220,     10.07,       100,         0,     1.11, 0,   177.1, 0, 1, 0, 0, 1, 1, 100,       220,     112.5, 1, 1, 0, 1, 0, 1, 0, 1, 0, 1
   254,  1,        55,        20,        20,         0,  1.10528, 0,    78.8, 0, 1, 0, 0, 1, 1, 100,        55,        23, 1, 1, 0, 1, 0, 1, 0, 1, 0, 1
   254,  2,        50,        20,        20,         0,  1.10528, 0,    68.8, 0, 1, 0, 0, 1, 1, 100,        50,        25, 1, 1, 0, 1, 0, 1, 0, 1, 0, 1
   254,  3,        50,        20,        20,         0,  1.10528, 0,    68.8, 0, 1, 0, 0, 1, 1, 100,        50,        25, 1, 1, 0, 1, 0, 1, 0, 1, 0, 1
   254,  4,        23,        20,        20,         0,  1.10528, 0,    27.6, 0, 1, 0, 0, 1, 1, 100,        23,         7, 1, 1, 0, 1, 0, 1, 0, 1, 0, 1
   267,  1,       2.1,         1,         1,         0,  1.05826, 0,     0.7, 0, 1, 0, 0, 1, 1, 100,       2.1,      0.45, 1, 1, 0, 1, 0, 1, 0, 1, 0, 1
   268,  1,       2.1,         1,         1,         0,  1.07506, 0,     0.7, 0, 1, 0, 0, 1, 1, 100,       2.1,      0.45, 1, 1, 0, 1, 0, 1, 0, 1, 0, 1
   278,  1,         0,         0,         5,         0,        1, 0,    10.3, 0, 1, 0, 0, 1, 0, 100,      7.15,      5.85, 1, 1, 0, 1, 0, 1, 0, 1, 0, 1
   279,  1,         0,         0,         5,         0,        1, 0,    10.3, 0, 1, 0, 0, 1, 0, 100,      7.15,      5.85, 1, 1, 0, 1, 0, 1, 0, 1, 0, 1
   295,  1,         5,      3.75,      3.75,         0,  1.09445, 0,       5, 0, 1, 0, 0, 1, 1, 100,         5,         1, 1, 1, 0, 1, 0, 1, 0, 1, 0, 1
   295,  2,         5,      3.75,      3.75,         0,  1.09445, 0,       5, 0, 1, 0, 0, 1, 1, 100,         5,         1, 1, 1, 0, 1, 0, 1, 0, 1, 0, 1
   295,  3,         5,      3.75,      3.75,         0,  1.09445, 0,       5, 0, 1, 0, 0, 1, 1, 100,         5,         1, 1, 1, 0, 1, 0, 1, 0, 1, 0, 1
   295,  4,         5,      3.75,      3.75,         0,  1.09445, 0,       5, 0, 1, 0, 0, 1, 1, 100,         5,         1, 1, 1, 0, 1, 0, 1, 0, 1, 0, 1
   310,  1,       370,       190,       190,       -19,        1, 0,     426, 0, 1, 0, 0, 1, 1, 100,       370,       240, 1, 1, 0, 1, 0, 1, 0, 1, 0, 1
   316,  1,         0,         0,         2,         0,        1, 0,       4, 0, 1, 0, 0, 1, 0, 100,      5.73,         1, 1, 1, 0, 1, 0, 1, 0, 1, 0, 1
   316,  2,         0,         0,         2,         0,        1, 0,       4, 0, 1, 0, 0, 1, 0, 100,      5.73,         1, 1, 1, 0, 1, 0, 1, 0, 1, 0, 1
   376,  1,       6.6,         5,         5,         0,  1.10193, 0,     8.4, 0, 1, 0, 0, 1, 1, 100,       6.6,       5.4, 1, 1, 0, 1, 0, 1, 0, 1, 0, 1
   379,  1,       0.9,         1,         1,         0,  1.11132, 0,     0.9, 0, 1, 0, 0, 1, 1, 100,       0.9,       0.3, 1, 1, 0, 1, 0, 1, 0, 1, 0, 1
   379,  2,       0.9,         1,         1,         0,  1.11132, 0,     0.9, 0, 1, 0, 0, 1, 1, 100,       0.9,       0.3, 1, 1, 0, 1, 0, 1, 0, 1, 0, 1
   379,  3,       0.9,         1,         1,         0,  1.11132, 0,     0.9, 0, 1, 0, 0, 1, 1, 100,       0.9,       0.3, 1, 1, 0, 1, 0, 1, 0, 1, 0, 1
   383,  1,        27,         7,         7,         0,  1.11054, 0,    31.3, 0, 1, 0, 0, 1, 1, 100,        27,        11, 1, 1, 0, 1, 0, 1, 0, 1, 0, 1
   383,  2,        30,         7,         7,         0,  1.11054, 0,      39, 0, 1, 0, 0, 1, 1, 100,        30,        11, 1, 1, 0, 1, 0, 1, 0, 1, 0, 1
   383,  3,        30,         6,         6,         0,  1.11054, 0,    40.6, 0, 1, 0, 0, 1, 1, 100,        30,         9, 1, 1, 0, 1, 0, 1, 0, 1, 0, 1
   384,  1,        55,        15,        15,         0,  1.11743, 0,    68.8, 0, 1, 0, 0, 1, 1, 100,        55,        20, 1, 1, 0, 1, 0, 1, 0, 1, 0, 1
   384,  2,        55,        15,        15,         0,  1.11743, 0,    68.8, 0, 1, 0, 0, 1, 1, 100,        55,        20, 1, 1, 0, 1, 0, 1, 0, 1, 0, 1
   385,  1,        40,      6.11,        15,         0,  1.11752, 0,    48.5, 0, 1, 0, 0, 1, 1, 100,        40,        10, 1, 1, 0, 1, 0, 1, 0, 1, 0, 1
   385,  2,        55,      6.11,        15,         0,  1.11752, 0,    68.8, 0, 1, 0, 0, 1, 1, 100,        55,        20, 1, 1, 0, 1, 0, 1, 0, 1, 0, 1
   387,  1,        50,        20,        20,         0,   1.1113, 0,    68.8, 0, 1, 0, 0, 1, 1, 100,        50,        25, 1, 1, 0, 1, 0, 1, 0, 1, 0, 1
   387,  2,       100,        20,        20,         0,   1.1113, 0,     147, 0, 1, 0, 0, 1, 1, 100,       100,        55, 1, 1, 0, 1, 0, 1, 0, 1, 0, 1
   388,  1,        60,        40,        40,         0,  1.11386, 0,    68.8, 0, 1, 0, 0, 1, 1, 100,        60,        25, 1, 1, 0, 1, 0, 1, 0, 1, 0, 1
   399,  1,      2.75,         3,         3,         0,  1.10799, 0,     3.8, 0, 1, 0, 0, 1, 1, 100,      2.75,         2, 1, 1, 0, 1, 0, 1, 0, 1, 0, 1
   433,  1,      1.65,         1,         1,         0,  1.09946, 0,     1.9, 0, 1, 0, 0, 1, 1, 100,      1.65,      1.35, 1, 1, 0, 1, 0, 1, 0, 1, 0, 1
   455,  1,      51.5,      8.22,        57,       -22,  1.11245, 0,    68.8, 0, 1, 0, 0, 1, 1, 100,      51.5,        15, 1, 1, 0, 1, 0, 1, 0, 1, 0, 1
   456,  1,        55,      8.37,        57,       -22,  1.11895, 0,    68.8, 0, 1, 0, 0, 1, 1, 100,        55,        15, 1, 1, 0, 1, 0, 1, 0, 1, 0, 1
   457,  1,        55,      14.8,        57,       -22,  1.11707, 0,    68.8, 0, 1, 0, 0, 1, 1, 100,        55,        15, 1, 1, 0, 1, 0, 1, 0, 1, 0, 1
   457,  2,        77,     17.33,        71,       -28,  1.11707, 0,    87.5, 0, 1, 0, 0, 1, 1, 100,        77,         3, 1, 1, 0, 1, 0, 1, 0, 1, 0, 1
   458,  1,        55,      8.56,        57,       -22,  1.11493, 0,    68.8, 0, 1, 0, 0, 1, 1, 100,        55,        15, 1, 1, 0, 1, 0, 1, 0, 1, 0, 1
   458,  2,        55,      8.56,        57,       -22,  1.11493, 0,    68.8, 0, 1, 0, 0, 1, 1, 100,        55,        15, 1, 1, 0, 1, 0, 1, 0, 1, 0, 1
   478,  1,       120,     73.47,       137,       -47,  1.11867, 0,   235.3, 0, 1, 0, 0, 1, 1, 100,       226,       120, 1, 1, 0, 1, 0, 1, 0, 1, 0, 1
   478,  2,        12,      6.16,        12,         0,  1.11867, 0,    48.5, 0, 1, 0, 0, 1, 1, 100,        25,        12, 1, 1, 0, 1, 0, 1, 0, 1, 0, 1
   479,  1,        10,        12,        12,         0,  1.10485, 0,    48.5, 0, 1, 0, 0, 1, 1, 100,        17,        10, 1, 1, 0, 1, 0, 1, 0, 1, 0, 1
   482,  1,       4.4,         2,         2,         0,  1.10618, 0,     5.6, 0, 1, 0, 0, 1, 1, 100,       4.4,       3.6, 1, 1, 0, 1, 0, 1, 0, 1, 0, 1
   500,  1,      0.34,       0.2,       0.2,         0,  1.09306, 0,     0.4, 0, 1, 0, 0, 1, 1, 100,      0.34,         0, 1, 1, 0, 1, 0, 1, 0, 1, 0, 1
   522,  1,       6.6,         4,         4,         0,  1.10119, 0,     8.4, 0, 1, 0, 0, 1, 1, 100,       6.6,         3, 1, 1, 0, 1, 0, 1, 0, 1, 0, 1
   527,  1,      3.41,         3,         3,         0,  1.11076, 0,     4.6, 0, 1, 0, 0, 1, 1, 100,      3.41,      2.79, 1, 1, 0, 1, 0, 1, 0, 1, 0, 1
   532,  1,       6.5,      4.59,       4.7,       3.8,  1.10157, 0,     6.5, 0, 1, 0, 0, 1, 1, 100,       6.5,         1, 1, 1, 0, 1, 0, 1, 0, 1, 0, 1
   532,  2,       6.5,      4.59,       4.7,       3.8,  1.10157, 0,     6.5, 0, 1, 0, 0, 1, 1, 100,       6.5,         1, 1, 1, 0, 1, 0, 1, 0, 1, 0, 1
   532,  3,       6.5,      4.59,       4.7,       3.8,  1.10157, 0,     6.5, 0, 1, 0, 0, 1, 1, 100,       6.5,         1, 1, 1, 0, 1, 0, 1, 0, 1, 0, 1
   543,  1,      2.97,         2,         2,         0,  1.06077, 0,     4.1, 0, 1, 0, 0, 1, 1, 100,      2.97,      2.43, 1, 1, 0, 1, 0, 1, 0, 1, 0, 1
   572,  1,         0,         0,         2,         0,        1, 0,     4.6, 0, 1, 0, 0, 1, 0, 100,      3.52,      2.88, 1, 1, 0, 1, 0, 1, 0, 1, 0, 1
   597,  1,       1.7,       0.7,       0.7,         0,  1.08723, 0,     1.9, 0, 1, 0, 0, 1, 1, 100,       1.7,         1, 1, 1, 0, 1, 0, 1, 0, 1, 0, 1
   597,  2,         0,         0,       0.7,         0,        1, 0,     1.9, 0, 1, 0, 0, 1, 0, 100,       1.7,         1, 1, 1, 0, 1, 0, 1, 0, 1, 0, 1
   603,  1,       4.4,         3,         3,         0,  1.11189, 0,     5.6, 0, 1, 0, 0, 1, 1, 100,       4.4,         3, 1, 1, 0, 1, 0, 1, 0, 1, 0, 1
   670,  1,        52,     16.51,        35,         2,  1.11956, 0,    62.5, 0, 1, 0, 0, 1, 1, 100,        52,        37, 1, 1, 0, 1, 0, 1, 0, 1, 0, 1
   670,  2,        30,      11.7,        23,         2,  1.11956, 0,    37.5, 0, 1, 0, 0, 1, 1, 100,        30,        10, 1, 1, 0, 1, 0, 1, 0, 1, 0, 1
   670,  3,       105,     34.77,        85,         6,  1.11956, 0,     150, 0, 1, 0, 0, 1, 1, 100,       105,        50, 1, 1, 0, 1, 0, 1, 0, 1, 0, 1
   670,  4,       105,     34.77,        85,         6,  1.11956, 0,     150, 0, 1, 0, 0, 1, 1, 100,       105,        50, 1, 1, 0, 1, 0, 1, 0, 1, 0, 1
   671,  1,        30,     11.81,        23,         2,     1.12, 0,    37.5, 0, 1, 0, 0, 1, 1, 100,        30,        10, 1, 1, 0, 1, 0, 1, 0, 1, 0, 1
   671,  2,        30,     11.81,        23,         2,     1.12, 0,    37.5, 0, 1, 0, 0, 1, 1, 100,        30,        10, 1, 1, 0, 1, 0, 1, 0, 1, 0, 1
   671,  3,        30,     12.67,        25,         2,     1.12, 0,    37.5, 0, 1, 0, 0, 1, 1, 100,        30,        10, 1, 1, 0, 1, 0, 1, 0, 1, 0, 1
   671,  4,       125,     35.77,        85,         6,     1.12, 0,     150, 0, 1, 0, 0, 1, 1, 100,       125,        68, 1, 1, 0, 1, 0, 1, 0, 1, 0, 1
   671,  5,       105,     35.77,        85,         6,     1.12, 0,     150, 0, 1, 0, 0, 1, 1, 100,       105,        50, 1, 1, 0, 1, 0, 1, 0, 1, 0, 1
   692,  1,      1.54,       0.7,       0.7,         0,  1.09872, 0,     1.9, 0, 1, 0, 0, 1, 1, 100,      1.54,      1.26, 1, 1, 0, 1, 0, 1, 0, 1, 0, 1
   694,  1,       1.4,         1,         1,         0,  1.08197, 0,     3.8, 0, 1, 0, 0, 1, 1, 100,       1.4,         0, 1, 1, 0, 1, 0, 1, 0, 1, 0, 1
   700,  1,        35,        18,        18,         2,  1.11463, 0,    37.5, 0, 1, 0, 0, 1, 1, 100,        35,         9, 1, 1, 0, 1, 0, 1, 0, 1, 0, 1
   700,  2,        20,        30,        30,         2,  1.11463, 0,    37.5, 0, 1, 0, 0, 1, 1, 100,        20,         9, 1, 1, 0, 1, 0, 1, 0, 1, 0, 1
   701,  1,        35,        18,        18,         2,  1.11138, 0,    37.5, 0, 1, 0, 0, 1, 1, 100,        35,         9, 1, 1, 0, 1, 0, 1, 0, 1, 0, 1
   701,  2,        35,        18,        18,         2,  1.11138, 0,    37.5, 0, 1, 0, 0, 1, 1, 100,        35,         9, 1, 1, 0, 1, 0, 1, 0, 1, 0, 1
   701,  3,        35,        18,        18,         2,  1.11138, 0,    37.5, 0, 1, 0, 0, 1, 1, 100,        35,         9, 1, 1, 0, 1, 0, 1, 0, 1, 0, 1
   701,  4,        97,        65,        65,         6,  1.11138, 0,   121.3, 0, 1, 0, 0, 1, 1, 100,        97,        30, 1, 1, 0, 1, 0, 1, 0, 1, 0, 1
   702,  1,        35,        18,        18,         2,  1.11468, 0,    37.5, 0, 1, 0, 0, 1, 1, 100,        35,         9, 1, 1, 0, 1, 0, 1, 0, 1, 0, 1
   702,  2,        30,        18,        18,         2,  1.11468, 0,    37.5, 0, 1, 0, 0, 1, 1, 100,        30,         9, 1, 1, 0, 1, 0, 1, 0, 1, 0, 1
   702,  3,        28,        14,        14,         2,  1.11468, 0,    31.5, 0, 1, 0, 0, 1, 1, 100,        28,         9, 1, 1, 0, 1, 0, 1, 0, 1, 0, 1
   735,  1,         8,         4,         4,         0,   1.0952, 0,     5.3, 0, 1, 0, 0, 1, 1, 100,         8,         1, 1, 1, 0, 1, 0, 1, 0, 1, 0, 1
   735,  2,         2,         2,         2,         0,   1.0952, 0,       2, 0, 1, 0, 0, 1, 1, 100,         2,         1, 1, 1, 0, 1, 0, 1, 0, 1, 0, 1
   752,  1,       4.4,       0.2,       4.5,       0.2,  1.09731, 0,     5.8, 0, 1, 0, 0, 1, 1, 100,       4.4,       3.6, 1, 1, 0, 1, 0, 1, 0, 1, 0, 1
   766,  1,       2.7,         0,         0,         0,  1.09745, 0,     5.8, 0, 1, 0, 0, 1, 1, 100,       2.7,         0, 1, 1, 0, 1, 0, 1, 0, 1, 0, 1
   775,  1,       4.9,         0,         0,         0,  1.09432, 0,       4, 0, 1, 0, 0, 1, 1, 100,       4.9,         0, 1, 1, 0, 1, 0, 1, 0, 1, 0, 1
   798,  1,        93,     14.74,        30,         0,  1.11549, 0,      65, 0, 1, 0, 0, 1, 1, 100,        93,         0, 1, 1, 0, 1, 0, 1, 0, 1, 0, 1
   798,  2,      35.9,     14.74,        30,         0,  1.11549, 0,      65, 0, 1, 0, 0, 1, 1, 100,      35.9,         0, 1, 1, 0, 1, 0, 1, 0, 1, 0, 1
   801,  1,         0,         0,         0,         0,        1, 0,    12.4, 0, 1, 0, 0, 1, 0, 100,       2.5,         0, 1, 1, 0, 1, 0, 1, 0, 1, 0, 1
...